########################################
# Program: needle
# Rundate: Fri 15 Nov 2024 03:33:43
# Commandline: needle
#    -asequence /var/lib/cwl/stgc13eac48-833b-4036-8cdc-2b3c64d837d9/split_fasta_query_species/q5vpe3.fasta
#    -bsequence /var/lib/cwl/stg5f608a9e-6240-4f90-9f41-3f77996ed2ba/split_fasta_hit_species/p50221.fasta
#    -gapopen 10.0
#    -gapextend 0.5
#    -outfile result_needle/q5vpe3_p50221_align.needle
#    -sprotein1
#    -sprotein2
#    -verbose
# Align_format: srspair
# Report_file: result_needle/q5vpe3_p50221_align.needle
########################################

#=======================================
#
# Aligned_sequences: 2
# 1: Q5VPE3
# 2: P50221
# Matrix: EBLOSUM62
# Gap_penalty: 10.0
# Extend_penalty: 0.5
#
# Length: 371
# Identity:      49/371 (13.2%)
# Similarity:    72/371 (19.4%)
# Gaps:         180/371 (48.5%)
# Score: 95.0
# 
#
#=======================================

Q5VPE3             0 --------------------------------------------------      0
                                                                       
P50221             1 MDPAASSCMRSLQPPAPVWGCLRNPHSEGNGASGLPHYPPTPFSFHQKPD     50

Q5VPE3             1 --------MMDLGLSLGLGLASQGSLTSSTTTTSSPGAGSSSPWAAALNS     42
                             ..|...|................|...|....|..|    :.
P50221            51 FLATATAAYPDFSASCLAATPHSLPQEEHIFTEQHPAFPQSPNW----HF     96

Q5VPE3            43 IVGDVRRDQAAAHAAAAVGVGVGGEEMYQGRASTSPDSAAALSSASGKRE     92
                     .|.|.||...:..|..:..:|.....:.........|.....|:|:...:
P50221            97 PVSDARRRPNSGPAGGSKEMGTSSLGLVDTTGGPGDDYGVLGSTANETEK    146

Q5VPE3            93 RELERSGSGVDDDDGADGAGGRKKLR-----LSKDQAAVLEECFKTHSTL    137
                     :...|.....|:.:......|..|.|     .:|:|...||..|..|:.|
P50221           147 KSSRRRKESSDNQENRGKPEGSSKARKERTAFTKEQLRELEAEFAHHNYL    196

Q5VPE3           138 NPKQKVALANRLGLRPRQVEVWFQNRRARTKLKQTEVDCEYLKRWCERLA    187
                     ...::..:|..|.|..|||:|||||||               .:|     
P50221           197 TRLRRYEIAVNLDLSERQVKVWFQNRR---------------MKW-----    226

Q5VPE3           188 DENKRLEKELADLRALKAAPSPASASAMQPSSSAAATLTMCPSCRRVATA    237
                        ||::           ...|.|.:...|....:   |..||..     
P50221           227 ---KRVK-----------GGQPISPNGQDPEDGDS---TASPSSE-----    254

Q5VPE3           238 GAPHQPNHQQCHPKSNTTISSSSTAAAAVAVAGGNVLPSHCQFFPAAAAA    287
                                                                       
P50221           254 --------------------------------------------------    254

Q5VPE3           288 ADRTSQSTWNAAAPLVTRELF    308
                                          
P50221           254 ---------------------    254


#---------------------------------------
#---------------------------------------
