########################################
# Program: needle
# Rundate: Tue  2 Sep 2025 06:44:33
# Commandline: needle
#    -asequence /var/lib/cwl/stga8ce8115-189f-4ce7-8747-065c94087c00/split_fasta_query_species/af-q5vpe3-f1.fasta
#    -bsequence /var/lib/cwl/stga4170e1d-19a2-428d-826d-862343876bd1/split_fasta_hit_species/af-p50221-f1.fasta
#    -gapopen 10.0
#    -gapextend 0.5
#    -outfile result_needle/af-q5vpe3-f1_af-p50221-f1_align.needle
#    -sprotein1
#    -sprotein2
#    -verbose
# Align_format: srspair
# Report_file: result_needle/af-q5vpe3-f1_af-p50221-f1_align.needle
########################################

#=======================================
#
# Aligned_sequences: 2
# 1: AF-Q5VPE3-F1
# 2: AF-P50221-F1
# Matrix: EBLOSUM62
# Gap_penalty: 10.0
# Extend_penalty: 0.5
#
# Length: 371
# Identity:      49/371 (13.2%)
# Similarity:    72/371 (19.4%)
# Gaps:         180/371 (48.5%)
# Score: 95.0
# 
#
#=======================================

AF-Q5VPE3-F1       0 --------------------------------------------------      0
                                                                       
AF-P50221-F1       1 MDPAASSCMRSLQPPAPVWGCLRNPHSEGNGASGLPHYPPTPFSFHQKPD     50

AF-Q5VPE3-F1       1 --------MMDLGLSLGLGLASQGSLTSSTTTTSSPGAGSSSPWAAALNS     42
                             ..|...|................|...|....|..|    :.
AF-P50221-F1      51 FLATATAAYPDFSASCLAATPHSLPQEEHIFTEQHPAFPQSPNW----HF     96

AF-Q5VPE3-F1      43 IVGDVRRDQAAAHAAAAVGVGVGGEEMYQGRASTSPDSAAALSSASGKRE     92
                     .|.|.||...:..|..:..:|.....:.........|.....|:|:...:
AF-P50221-F1      97 PVSDARRRPNSGPAGGSKEMGTSSLGLVDTTGGPGDDYGVLGSTANETEK    146

AF-Q5VPE3-F1      93 RELERSGSGVDDDDGADGAGGRKKLR-----LSKDQAAVLEECFKTHSTL    137
                     :...|.....|:.:......|..|.|     .:|:|...||..|..|:.|
AF-P50221-F1     147 KSSRRRKESSDNQENRGKPEGSSKARKERTAFTKEQLRELEAEFAHHNYL    196

AF-Q5VPE3-F1     138 NPKQKVALANRLGLRPRQVEVWFQNRRARTKLKQTEVDCEYLKRWCERLA    187
                     ...::..:|..|.|..|||:|||||||               .:|     
AF-P50221-F1     197 TRLRRYEIAVNLDLSERQVKVWFQNRR---------------MKW-----    226

AF-Q5VPE3-F1     188 DENKRLEKELADLRALKAAPSPASASAMQPSSSAAATLTMCPSCRRVATA    237
                        ||::           ...|.|.:...|....:   |..||..     
AF-P50221-F1     227 ---KRVK-----------GGQPISPNGQDPEDGDS---TASPSSE-----    254

AF-Q5VPE3-F1     238 GAPHQPNHQQCHPKSNTTISSSSTAAAAVAVAGGNVLPSHCQFFPAAAAA    287
                                                                       
AF-P50221-F1     254 --------------------------------------------------    254

AF-Q5VPE3-F1     288 ADRTSQSTWNAAAPLVTRELF    308
                                          
AF-P50221-F1     254 ---------------------    254


#---------------------------------------
#---------------------------------------
